opendss_networks/LV6_17bus/lines.dss
new line.L_725 lineCode=ugsc_16cu_xlpe/nyl/pvc_ug_4w_bundled bus1=B3353 bus2=B3135 length=0.0375956023430 units=km phases=4
new line.L_1100 lineCode=ughv_400al_triplex_ug_4w_bundled bus1=B2074 bus2=B1372 length=0.000361588410802 units=km phases=4
new line.L_1578 lineCode=ughv_400al_triplex_ug_4w_bundled bus1=B3199 bus2=B915 length=0.000255748683551 units=km phases=4
new line.L_2971 lineCode=ughv_400al_triplex_ug_4w_bundled bus1=B2074 bus2=B2241 length=0.000542180944304 units=km phases=4
new line.L_3321 lineCode=ugsc_16cu_xlpe/nyl/pvc_ug_4w_bundled bus1=B665 bus2=B26 length=0.00536940469288 units=km phases=4
new line.L_3378 lineCode=ughv_400al_triplex_ug_4w_bundled bus1=B2074 bus2=B3135 length=0.000255748683551 units=km phases=4
new line.L_4051 lineCode=ughv_400al_triplex_ug_4w_bundled bus1=B1618 bus2=B26 length=0.000800000000000 units=km phases=4
new line.L_4359 lineCode=ughv_400al_triplex_ug_4w_bundled bus1=B2074 bus2=B1568 length=0.000354706601559 units=km phases=4
new line.L_4581 lineCode=uglv_240al_xlpe/nyl/pvc_ug_4w_bundled bus1=B2030 bus2=B26 length=0.0693719979010 units=km phases=4
new line.L_4686 lineCode=ughv_400al_triplex_ug_4w_bundled bus1=B1932 bus2=B300 length=7.47735679484e-05 units=km phases=4
new line.L_4701 lineCode=ughv_400al_triplex_ug_4w_bundled bus1=B586 bus2=B2074 length=0.000244629175110 units=km phases=4
